pcf
* control data
restart regularisation
     86    1728      13      84      18
         4          3 single               point                         1          0          0
              5               2             0.3            0.03         10
              3               3           0.001               0
            0.1
        70            0.01          3          3            0.01          3
         1          1          1 jcosaveitn  reisaveitn           parsaveitn
* singular value decomposition
         1
        82           1E-05
         1
* parameter groups
median_gra           relative                        0.01               0 switch                             2 parabolic
ws_b                 relative                        0.01               0 switch                             2 parabolic
fall_time_           relative                        0.01               0 switch                             2 parabolic
plume_heig           relative                        0.01               0 switch                             2 parabolic
beta                 relative                        0.01               0 switch                             2 parabolic
diffusion_           relative                        0.01               0 switch                             2 parabolic
wd_b                 relative                        0.01               0 switch                             2 parabolic
wd_a                 relative                        0.01               0 switch                             2 parabolic
ws_a                 relative                        0.01               0 switch                             2 parabolic
std_grains           relative                        0.01               0 switch                             2 parabolic
alpha                relative                        0.01               0 switch                             2 parabolic
eddy_const           relative                        0.01               0 switch                             2 parabolic
eruption_m           relative                        0.01               0 switch                             2 parabolic
* parameter data
pumdena                     log                factor    1.000000E+03    8.000000E+02    1.200000E+03                  beta    1.000000E+00    0.000000E+00          1
lithdena                    log                factor    2.600000E+03    2.400000E+03    2.800000E+03                  beta    1.000000E+00    0.000000E+00          1
pumdenb                     log                factor    1.000000E+03    8.000000E+02    1.200000E+03                  beta    1.000000E+00    0.000000E+00          1
lithdenb                    log                factor    2.600000E+03    2.400000E+03    2.800000E+03                  beta    1.000000E+00    0.000000E+00          1
median_ga                  none              relative   -5.000000E-01   -2.000000E+00    2.000000E+00            median_gra    1.000000E+00    0.000000E+00          1
median_gb                  none              relative   -5.000000E-01   -2.000000E+00    2.000000E+00            median_gra    1.000000E+00    0.000000E+00          1
ws_b_00                     log                factor    5.000000E+00    1.000000E-01    3.000000E+01                  ws_b    1.000000E+00    0.000000E+00          1
ws_b_01                     log                factor    5.000000E+00    1.000000E-01    3.000000E+01                  ws_b    1.000000E+00    0.000000E+00          1
ws_b_02                     log                factor    5.000000E+00    1.000000E-01    3.000000E+01                  ws_b    1.000000E+00    0.000000E+00          1
ws_b_03                     log                factor    5.000000E+00    1.000000E-01    3.000000E+01                  ws_b    1.000000E+00    0.000000E+00          1
ws_b_04                     log                factor    5.000000E+00    1.000000E-01    3.000000E+01                  ws_b    1.000000E+00    0.000000E+00          1
ws_b_05                     log                factor    8.000000E+00    2.000000E+00    3.000000E+01                  ws_b    1.000000E+00    0.000000E+00          1
ws_b_06                     log                factor    8.000000E+00    2.000000E+00    3.000000E+01                  ws_b    1.000000E+00    0.000000E+00          1
ws_b_07                     log                factor    8.000000E+00    2.000000E+00    3.000000E+01                  ws_b    1.000000E+00    0.000000E+00          1
ws_b_08                     log                factor    8.000000E+00    2.000000E+00    3.000000E+01                  ws_b    1.000000E+00    0.000000E+00          1
ws_b_09                     log                factor    1.400000E+01    5.000000E+00    3.000000E+01                  ws_b    1.000000E+00    0.000000E+00          1
ws_b_10                     log                factor    1.400000E+01    5.000000E+00    3.000000E+01                  ws_b    1.000000E+00    0.000000E+00          1
ws_b_11                     log                factor    1.400000E+01    5.000000E+00    3.000000E+01                  ws_b    1.000000E+00    0.000000E+00          1
ws_b_12                     log                factor    1.400000E+01    5.000000E+00    3.000000E+01                  ws_b    1.000000E+00    0.000000E+00          1
ws_b_13                     log                factor    2.000000E+01    5.000000E+00    4.000000E+01                  ws_b    1.000000E+00    0.000000E+00          1
ws_b_14                     log                factor    2.000000E+01    5.000000E+00    4.000000E+01                  ws_b    1.000000E+00    0.000000E+00          1
ws_b_15                     log                factor    2.000000E+01    5.000000E+00    4.000000E+01                  ws_b    1.000000E+00    0.000000E+00          1
fall_tima                   log                factor    3.000000E+03    1.000000E+03    7.000000E+03            fall_time_    1.000000E+00    0.000000E+00          1
fall_timb                   log                factor    3.000000E+03    1.000000E+03    7.000000E+03            fall_time_    1.000000E+00    0.000000E+00          1
plume_hea                   log                factor    7.000000E+03    3.000000E+03    1.000000E+04            plume_heig    1.000000E+00    0.000000E+00          1
plume_heb                   log                factor    7.000000E+03    3.000000E+03    1.000000E+04            plume_heig    1.000000E+00    0.000000E+00          1
betaa                     fixed                factor    1.000000E+00    1.000000E-02    1.000000E+01                  beta    1.000000E+00    0.000000E+00          1
betab                     fixed                factor    1.000000E+00    1.000000E-02    1.000000E+01                  beta    1.000000E+00    0.000000E+00          1
diffusioa                   log                factor    1.000000E+03    1.000000E-01    1.000000E+04            diffusion_    1.000000E+00    0.000000E+00          1
diffusiob                   log                factor    1.000000E+03    1.000000E-01    1.000000E+04            diffusion_    1.000000E+00    0.000000E+00          1
wd_b_00                     log                factor    2.620000E+02    1.750000E+02    4.500000E+02                  wd_b    1.000000E+00    0.000000E+00          1
wd_b_01                     log                factor    2.620000E+02    1.750000E+02    4.500000E+02                  wd_b    1.000000E+00    0.000000E+00          1
wd_b_02                     log                factor    2.620000E+02    1.750000E+02    4.500000E+02                  wd_b    1.000000E+00    0.000000E+00          1
wd_b_03                     log                factor    2.620000E+02    1.750000E+02    4.500000E+02                  wd_b    1.000000E+00    0.000000E+00          1
wd_b_04                     log                factor    2.620000E+02    1.750000E+02    4.500000E+02                  wd_b    1.000000E+00    0.000000E+00          1
wd_b_05                     log                factor    2.620000E+02    1.750000E+02    4.500000E+02                  wd_b    1.000000E+00    0.000000E+00          1
wd_b_06                     log                factor    2.620000E+02    1.750000E+02    4.500000E+02                  wd_b    1.000000E+00    0.000000E+00          1
wd_b_07                     log                factor    2.620000E+02    1.750000E+02    4.500000E+02                  wd_b    1.000000E+00    0.000000E+00          1
wd_b_08                     log                factor    2.620000E+02    1.750000E+02    4.500000E+02                  wd_b    1.000000E+00    0.000000E+00          1
wd_b_09                     log                factor    2.620000E+02    1.750000E+02    4.500000E+02                  wd_b    1.000000E+00    0.000000E+00          1
wd_b_10                     log                factor    2.620000E+02    1.750000E+02    4.500000E+02                  wd_b    1.000000E+00    0.000000E+00          1
wd_b_11                     log                factor    2.620000E+02    1.750000E+02    4.500000E+02                  wd_b    1.000000E+00    0.000000E+00          1
wd_b_12                     log                factor    2.620000E+02    1.750000E+02    4.500000E+02                  wd_b    1.000000E+00    0.000000E+00          1
wd_b_13                     log                factor    2.620000E+02    1.750000E+02    4.500000E+02                  wd_b    1.000000E+00    0.000000E+00          1
wd_b_14                     log                factor    2.620000E+02    1.750000E+02    4.500000E+02                  wd_b    1.000000E+00    0.000000E+00          1
wd_b_15                     log                factor    2.620000E+02    1.750000E+02    4.500000E+02                  wd_b    1.000000E+00    0.000000E+00          1
wd_a_00                     log                factor    2.550000E+02    1.750000E+02    4.500000E+02                  wd_a    1.000000E+00    0.000000E+00          1
wd_a_01                     log                factor    2.550000E+02    1.750000E+02    4.500000E+02                  wd_a    1.000000E+00    0.000000E+00          1
wd_a_02                     log                factor    2.550000E+02    1.750000E+02    4.500000E+02                  wd_a    1.000000E+00    0.000000E+00          1
wd_a_03                     log                factor    2.550000E+02    1.750000E+02    4.500000E+02                  wd_a    1.000000E+00    0.000000E+00          1
wd_a_04                     log                factor    2.550000E+02    1.750000E+02    4.500000E+02                  wd_a    1.000000E+00    0.000000E+00          1
wd_a_05                     log                factor    2.550000E+02    1.750000E+02    4.500000E+02                  wd_a    1.000000E+00    0.000000E+00          1
wd_a_06                     log                factor    2.550000E+02    1.750000E+02    4.500000E+02                  wd_a    1.000000E+00    0.000000E+00          1
wd_a_07                     log                factor    2.550000E+02    1.750000E+02    4.500000E+02                  wd_a    1.000000E+00    0.000000E+00          1
wd_a_08                     log                factor    2.550000E+02    1.750000E+02    4.500000E+02                  wd_a    1.000000E+00    0.000000E+00          1
wd_a_09                     log                factor    2.550000E+02    1.750000E+02    4.500000E+02                  wd_a    1.000000E+00    0.000000E+00          1
wd_a_10                     log                factor    2.550000E+02    1.750000E+02    4.500000E+02                  wd_a    1.000000E+00    0.000000E+00          1
wd_a_11                     log                factor    2.550000E+02    1.750000E+02    4.500000E+02                  wd_a    1.000000E+00    0.000000E+00          1
wd_a_12                     log                factor    2.550000E+02    1.750000E+02    4.500000E+02                  wd_a    1.000000E+00    0.000000E+00          1
wd_a_13                     log                factor    2.550000E+02    1.750000E+02    4.500000E+02                  wd_a    1.000000E+00    0.000000E+00          1
wd_a_14                     log                factor    2.550000E+02    1.750000E+02    4.500000E+02                  wd_a    1.000000E+00    0.000000E+00          1
wd_a_15                     log                factor    2.550000E+02    1.750000E+02    4.500000E+02                  wd_a    1.000000E+00    0.000000E+00          1
ws_a_00                     log                factor    5.000000E+00    1.000000E-01    3.000000E+01                  ws_a    1.000000E+00    0.000000E+00          1
ws_a_01                     log                factor    5.000000E+00    1.000000E-01    3.000000E+01                  ws_a    1.000000E+00    0.000000E+00          1
ws_a_02                     log                factor    5.000000E+00    1.000000E-01    3.000000E+01                  ws_a    1.000000E+00    0.000000E+00          1
ws_a_03                     log                factor    5.000000E+00    1.000000E-01    3.000000E+01                  ws_a    1.000000E+00    0.000000E+00          1
ws_a_04                     log                factor    5.000000E+00    1.000000E-01    3.000000E+01                  ws_a    1.000000E+00    0.000000E+00          1
ws_a_05                     log                factor    8.000000E+00    2.000000E+00    3.000000E+01                  ws_a    1.000000E+00    0.000000E+00          1
ws_a_06                     log                factor    8.000000E+00    2.000000E+00    3.000000E+01                  ws_a    1.000000E+00    0.000000E+00          1
ws_a_07                     log                factor    8.000000E+00    2.000000E+00    3.000000E+01                  ws_a    1.000000E+00    0.000000E+00          1
ws_a_08                     log                factor    8.000000E+00    2.000000E+00    3.000000E+01                  ws_a    1.000000E+00    0.000000E+00          1
ws_a_09                     log                factor    1.400000E+01    5.000000E+00    3.000000E+01                  ws_a    1.000000E+00    0.000000E+00          1
ws_a_10                     log                factor    1.400000E+01    5.000000E+00    3.000000E+01                  ws_a    1.000000E+00    0.000000E+00          1
ws_a_11                     log                factor    1.400000E+01    5.000000E+00    3.000000E+01                  ws_a    1.000000E+00    0.000000E+00          1
ws_a_12                     log                factor    1.400000E+01    5.000000E+00    3.000000E+01                  ws_a    1.000000E+00    0.000000E+00          1
ws_a_13                     log                factor    2.000000E+01    5.000000E+00    4.000000E+01                  ws_a    1.000000E+00    0.000000E+00          1
ws_a_14                     log                factor    2.000000E+01    5.000000E+00    4.000000E+01                  ws_a    1.000000E+00    0.000000E+00          1
ws_a_15                     log                factor    2.000000E+01    5.000000E+00    4.000000E+01                  ws_a    1.000000E+00    0.000000E+00          1
std_graia                   log                factor    2.000000E+00    5.000000E-03    4.000000E+00            std_grains    1.000000E+00    0.000000E+00          1
std_graib                   log                factor    2.000000E+00    5.000000E-03    4.000000E+00            std_grains    1.000000E+00    0.000000E+00          1
alphaa                      log                factor    1.000000E+00    1.000000E-04    1.000000E+01                 alpha    1.000000E+00    0.000000E+00          1
alphab                      log                factor    1.000000E+00    1.000000E-04    1.000000E+01                 alpha    1.000000E+00    0.000000E+00          1
eddy_cona                   log                factor    5.000000E-03    1.000000E-03    9.000000E-03            eddy_const    1.000000E+00    0.000000E+00          1
eddy_conb                   log                factor    5.000000E-03    1.000000E-03    9.000000E-03            eddy_const    1.000000E+00    0.000000E+00          1
eruptiona                   log                factor    5.500000E+10    5.000000E+09    1.000000E+11            eruption_m    1.000000E+00    0.000000E+00          1
eruptionb                   log                factor    1.250000E+10    1.000000E+09    7.500000E+10            eruption_m    1.000000E+00    0.000000E+00          1
* observation groups
gs+3.0
gs-0.5
gs-4.0
gs+0.0
gs-1.5
gs+0.5
gs-1.0
gs+1.5
gs+1.0
gs>3.0
gs+2.0
gs-2.5
gs-3.5
gs+2.5
gs-3.0
imas
gs-2.0
regul
* observation data
32a_gs+0.0    0.000000E+00    0.000000E+00                gs+0.0
32b_gs+0.0    0.000000E+00    0.000000E+00                gs+0.0
33a_gs+0.0    0.000000E+00    0.000000E+00                gs+0.0
33b_gs+0.0    0.000000E+00    0.000000E+00                gs+0.0
44a_gs+0.0    0.000000E+00    0.000000E+00                gs+0.0
44b_gs+0.0    0.000000E+00    0.000000E+00                gs+0.0
67_gs+0.0     3.858415E-01    0.000000E+00                gs+0.0
68_gs+0.0     1.078335E+00    0.000000E+00                gs+0.0
66_gs+0.0     1.850304E+00    0.000000E+00                gs+0.0
69_gs+0.0     2.475949E+00    0.000000E+00                gs+0.0
09_gs+0.0     3.081293E+00    0.000000E+00                gs+0.0
60a_gs+0.0    4.105280E+00    0.000000E+00                gs+0.0
62a_gs+0.0    5.086196E+00    0.000000E+00                gs+0.0
39_gs+0.0     5.553804E+00    0.000000E+00                gs+0.0
29a_gs+0.0    5.986958E+00    0.000000E+00                gs+0.0
02b_gs+0.0    6.422490E+00    0.000000E+00                gs+0.0
28a_gs+0.0    7.234251E+00    0.000000E+00                gs+0.0
27a_gs+0.0    9.552557E+00    0.000000E+00                gs+0.0
06b_gs+0.0    1.016635E+01    0.000000E+00                gs+0.0
17a_gs+0.0    1.066468E+01    0.000000E+00                gs+0.0
50_gs+0.0     1.253537E+01    0.000000E+00                gs+0.0
43b_gs+0.0    1.266457E+01    0.000000E+00                gs+0.0
31a_gs+0.0    1.279881E+01    0.000000E+00                gs+0.0
72b_gs+0.0    1.360786E+01    0.000000E+00                gs+0.0
13_gs+0.0     1.550085E+01    0.000000E+00                gs+0.0
05b_gs+0.0    1.624404E+01    0.000000E+00                gs+0.0
34b_gs+0.0    1.648999E+01    0.000000E+00                gs+0.0
15a_gs+0.0    1.674970E+01    0.000000E+00                gs+0.0
08_gs+0.0     1.678208E+01    0.000000E+00                gs+0.0
70_gs+0.0     1.755341E+01    0.000000E+00                gs+0.0
34a_gs+0.0    1.770672E+01    0.000000E+00                gs+0.0
51_gs+0.0     1.778331E+01    0.000000E+00                gs+0.0
56_gs+0.0     1.783605E+01    0.000000E+00                gs+0.0
21_gs+0.0     1.786181E+01    0.000000E+00                gs+0.0
47_gs+0.0     1.867902E+01    0.000000E+00                gs+0.0
59_gs+0.0     1.956923E+01    0.000000E+00                gs+0.0
37b_gs+0.0    1.965772E+01    0.000000E+00                gs+0.0
02a_gs+0.0    2.130253E+01    0.000000E+00                gs+0.0
10_gs+0.0     2.167661E+01    0.000000E+00                gs+0.0
04a_gs+0.0    2.176174E+01    0.000000E+00                gs+0.0
49_gs+0.0     2.215005E+01    0.000000E+00                gs+0.0
74a_gs+0.0    2.311021E+01    0.000000E+00                gs+0.0
52_gs+0.0     2.311091E+01    0.000000E+00                gs+0.0
01a_gs+0.0    2.363866E+01    0.000000E+00                gs+0.0
17b_gs+0.0    2.469741E+01    0.000000E+00                gs+0.0
36a_gs+0.0    2.631760E+01    0.000000E+00                gs+0.0
20_gs+0.0     2.637960E+01    0.000000E+00                gs+0.0
79_gs+0.0     2.640610E+01    0.000000E+00                gs+0.0
62b_gs+0.0    2.659902E+01    0.000000E+00                gs+0.0
48_gs+0.0     2.715424E+01    0.000000E+00                gs+0.0
65_gs+0.0     2.794125E+01    0.000000E+00                gs+0.0
11_gs+0.0     2.885597E+01    0.000000E+00                gs+0.0
36b_gs+0.0    2.954972E+01    0.000000E+00                gs+0.0
72a_gs+0.0    2.959556E+01    0.000000E+00                gs+0.0
01b_gs+0.0    3.149610E+01    0.000000E+00                gs+0.0
18_gs+0.0     3.251668E+01    0.000000E+00                gs+0.0
22_gs+0.0     3.292642E+01    0.000000E+00                gs+0.0
12_gs+0.0     3.389901E+01    0.000000E+00                gs+0.0
04b_gs+0.0    3.522053E+01    0.000000E+00                gs+0.0
23b_gs+0.0    3.545884E+01    0.000000E+00                gs+0.0
57_gs+0.0     3.701774E+01    0.000000E+00                gs+0.0
03b_gs+0.0    3.983939E+01    0.000000E+00                gs+0.0
06a_gs+0.0    3.991643E+01    0.000000E+00                gs+0.0
29b_gs+0.0    4.003684E+01    0.000000E+00                gs+0.0
05a_gs+0.0    4.028688E+01    0.000000E+00                gs+0.0
15b_gs+0.0    4.041469E+01    0.000000E+00                gs+0.0
42b_gs+0.0    4.055553E+01    0.000000E+00                gs+0.0
74b_gs+0.0    4.216260E+01    0.000000E+00                gs+0.0
53_gs+0.0     4.325868E+01    0.000000E+00                gs+0.0
30_gs+0.0     4.347746E+01    0.000000E+00                gs+0.0
16b_gs+0.0    4.428908E+01    0.000000E+00                gs+0.0
28b_gs+0.0    4.436837E+01    0.000000E+00                gs+0.0
14_gs+0.0     4.499502E+01    0.000000E+00                gs+0.0
60b_gs+0.0    4.704475E+01    0.000000E+00                gs+0.0
45_gs+0.0     5.122147E+01    0.000000E+00                gs+0.0
54_gs+0.0     5.153917E+01    0.000000E+00                gs+0.0
07_gs+0.0     5.207898E+01    0.000000E+00                gs+0.0
27b_gs+0.0    5.445880E+01    0.000000E+00                gs+0.0
46_gs+0.0     5.453727E+01    0.000000E+00                gs+0.0
37a_gs+0.0    5.847147E+01    0.000000E+00                gs+0.0
78_gs+0.0     6.119194E+01    0.000000E+00                gs+0.0
42a_gs+0.0    6.153691E+01    0.000000E+00                gs+0.0
19_gs+0.0     6.180398E+01    0.000000E+00                gs+0.0
03a_gs+0.0    6.489117E+01    0.000000E+00                gs+0.0
38_gs+0.0     6.536197E+01    0.000000E+00                gs+0.0
73_gs+0.0     6.620698E+01    0.000000E+00                gs+0.0
77_gs+0.0     6.639237E+01    0.000000E+00                gs+0.0
75_gs+0.0     6.716795E+01    0.000000E+00                gs+0.0
71_gs+0.0     7.232322E+01    0.000000E+00                gs+0.0
55_gs+0.0     9.100306E+01    0.000000E+00                gs+0.0
31b_gs+0.0    9.690774E+01    0.000000E+00                gs+0.0
43a_gs+0.0    1.039822E+02    0.000000E+00                gs+0.0
26_gs+0.0     1.041148E+02    0.000000E+00                gs+0.0
35_gs+0.0     1.082728E+02    0.000000E+00                gs+0.0
24_gs+0.0     1.262679E+02    0.000000E+00                gs+0.0
80_gs+0.0     1.265475E+02    0.000000E+00                gs+0.0
64_gs+0.0     1.354460E+02    0.000000E+00                gs+0.0
41_gs+0.0     1.515624E+02    0.000000E+00                gs+0.0
76_gs+0.0     1.705172E+02    0.000000E+00                gs+0.0
40_gs+0.0     1.780656E+02    0.000000E+00                gs+0.0
25_gs+0.0     2.316676E+02    0.000000E+00                gs+0.0
63_gs+0.0     2.584432E+02    0.000000E+00                gs+0.0
32a_gs+0.5    0.000000E+00    0.000000E+00                gs+0.5
32b_gs+0.5    0.000000E+00    0.000000E+00                gs+0.5
33a_gs+0.5    0.000000E+00    0.000000E+00                gs+0.5
33b_gs+0.5    0.000000E+00    0.000000E+00                gs+0.5
44a_gs+0.5    0.000000E+00    0.000000E+00                gs+0.5
44b_gs+0.5    0.000000E+00    0.000000E+00                gs+0.5
67_gs+0.5     1.112739E+00    0.000000E+00                gs+0.5
29a_gs+0.5    1.760870E+00    0.000000E+00                gs+0.5
28a_gs+0.5    2.023138E+00    0.000000E+00                gs+0.5
60a_gs+0.5    2.164602E+00    0.000000E+00                gs+0.5
62a_gs+0.5    2.989255E+00    0.000000E+00                gs+0.5
68_gs+0.5     2.997773E+00    0.000000E+00                gs+0.5
02b_gs+0.5    3.393259E+00    0.000000E+00                gs+0.5
66_gs+0.5     4.289342E+00    0.000000E+00                gs+0.5
27a_gs+0.5    4.508450E+00    0.000000E+00                gs+0.5
02a_gs+0.5    5.348295E+00    0.000000E+00                gs+0.5
31a_gs+0.5    5.451344E+00    0.000000E+00                gs+0.5
17a_gs+0.5    7.219730E+00    0.000000E+00                gs+0.5
15a_gs+0.5    7.531424E+00    0.000000E+00                gs+0.5
69_gs+0.5     8.046835E+00    0.000000E+00                gs+0.5
06b_gs+0.5    8.516941E+00    0.000000E+00                gs+0.5
09_gs+0.5     8.985670E+00    0.000000E+00                gs+0.5
34a_gs+0.5    9.029723E+00    0.000000E+00                gs+0.5
65_gs+0.5     1.104654E+01    0.000000E+00                gs+0.5
62b_gs+0.5    1.223786E+01    0.000000E+00                gs+0.5
39_gs+0.5     1.238618E+01    0.000000E+00                gs+0.5
01a_gs+0.5    1.324387E+01    0.000000E+00                gs+0.5
72a_gs+0.5    1.351102E+01    0.000000E+00                gs+0.5
37b_gs+0.5    1.495381E+01    0.000000E+00                gs+0.5
34b_gs+0.5    1.551999E+01    0.000000E+00                gs+0.5
74a_gs+0.5    1.714844E+01    0.000000E+00                gs+0.5
79_gs+0.5     1.725704E+01    0.000000E+00                gs+0.5
36a_gs+0.5    1.806668E+01    0.000000E+00                gs+0.5
72b_gs+0.5    1.914486E+01    0.000000E+00                gs+0.5
17b_gs+0.5    1.975793E+01    0.000000E+00                gs+0.5
43b_gs+0.5    1.982608E+01    0.000000E+00                gs+0.5
05b_gs+0.5    2.018677E+01    0.000000E+00                gs+0.5
15b_gs+0.5    2.097414E+01    0.000000E+00                gs+0.5
04a_gs+0.5    2.141229E+01    0.000000E+00                gs+0.5
59_gs+0.5     2.174936E+01    0.000000E+00                gs+0.5
13_gs+0.5     2.181818E+01    0.000000E+00                gs+0.5
16b_gs+0.5    2.203926E+01    0.000000E+00                gs+0.5
01b_gs+0.5    2.219805E+01    0.000000E+00                gs+0.5
21_gs+0.5     2.357142E+01    0.000000E+00                gs+0.5
36b_gs+0.5    2.526817E+01    0.000000E+00                gs+0.5
56_gs+0.5     2.530635E+01    0.000000E+00                gs+0.5
42a_gs+0.5    2.688824E+01    0.000000E+00                gs+0.5
50_gs+0.5     2.722327E+01    0.000000E+00                gs+0.5
42b_gs+0.5    2.754609E+01    0.000000E+00                gs+0.5
08_gs+0.5     2.974706E+01    0.000000E+00                gs+0.5
18_gs+0.5     2.997759E+01    0.000000E+00                gs+0.5
07_gs+0.5     3.167543E+01    0.000000E+00                gs+0.5
30_gs+0.5     3.173774E+01    0.000000E+00                gs+0.5
04b_gs+0.5    3.382910E+01    0.000000E+00                gs+0.5
20_gs+0.5     3.463302E+01    0.000000E+00                gs+0.5
05a_gs+0.5    3.696272E+01    0.000000E+00                gs+0.5
78_gs+0.5     3.741450E+01    0.000000E+00                gs+0.5
03b_gs+0.5    3.746010E+01    0.000000E+00                gs+0.5
22_gs+0.5     3.751319E+01    0.000000E+00                gs+0.5
51_gs+0.5     3.830741E+01    0.000000E+00                gs+0.5
70_gs+0.5     3.911649E+01    0.000000E+00                gs+0.5
10_gs+0.5     3.949181E+01    0.000000E+00                gs+0.5
11_gs+0.5     4.053475E+01    0.000000E+00                gs+0.5
14_gs+0.5     4.371324E+01    0.000000E+00                gs+0.5
06a_gs+0.5    4.561138E+01    0.000000E+00                gs+0.5
37a_gs+0.5    4.566031E+01    0.000000E+00                gs+0.5
29b_gs+0.5    4.800557E+01    0.000000E+00                gs+0.5
52_gs+0.5     4.867683E+01    0.000000E+00                gs+0.5
48_gs+0.5     4.990314E+01    0.000000E+00                gs+0.5
12_gs+0.5     5.200417E+01    0.000000E+00                gs+0.5
27b_gs+0.5    5.208800E+01    0.000000E+00                gs+0.5
47_gs+0.5     5.212749E+01    0.000000E+00                gs+0.5
19_gs+0.5     5.334182E+01    0.000000E+00                gs+0.5
35_gs+0.5     5.413642E+01    0.000000E+00                gs+0.5
64_gs+0.5     5.611334E+01    0.000000E+00                gs+0.5
03a_gs+0.5    5.633587E+01    0.000000E+00                gs+0.5
77_gs+0.5     5.703709E+01    0.000000E+00                gs+0.5
26_gs+0.5     5.915614E+01    0.000000E+00                gs+0.5
60b_gs+0.5    5.998750E+01    0.000000E+00                gs+0.5
45_gs+0.5     6.017627E+01    0.000000E+00                gs+0.5
28b_gs+0.5    6.089267E+01    0.000000E+00                gs+0.5
53_gs+0.5     6.137000E+01    0.000000E+00                gs+0.5
73_gs+0.5     6.326445E+01    0.000000E+00                gs+0.5
49_gs+0.5     6.384891E+01    0.000000E+00                gs+0.5
23b_gs+0.5    6.392101E+01    0.000000E+00                gs+0.5
38_gs+0.5     6.805091E+01    0.000000E+00                gs+0.5
54_gs+0.5     6.875131E+01    0.000000E+00                gs+0.5
74b_gs+0.5    7.027100E+01    0.000000E+00                gs+0.5
57_gs+0.5     7.249307E+01    0.000000E+00                gs+0.5
24_gs+0.5     7.339036E+01    0.000000E+00                gs+0.5
75_gs+0.5     7.506018E+01    0.000000E+00                gs+0.5
46_gs+0.5     7.684144E+01    0.000000E+00                gs+0.5
31b_gs+0.5    8.348792E+01    0.000000E+00                gs+0.5
55_gs+0.5     8.858141E+01    0.000000E+00                gs+0.5
71_gs+0.5     8.991812E+01    0.000000E+00                gs+0.5
41_gs+0.5     9.778889E+01    0.000000E+00                gs+0.5
43a_gs+0.5    1.169139E+02    0.000000E+00                gs+0.5