pcf
* control data
             restart      regularisation
        86      1728        13        84        18         0
         4         3              single               point         1         0         0          noobsreref
   5.000000E+00   2.000000E+00   3.000000E-01   3.000000E-02        10       999          lamforgive        noderforgive
   3.000000E+00   3.000000E+00   1.000000E-03         0         0
   1.000000E-01         1   1.100000E+00               noaui          nosenreuse        noboundscale
         0   1.000000E-02         3         3   1.000000E-02         3   0.000000E+00         1  -1.000000E+00
         1         1         1         0          reisaveitn          parsaveitn          jcosaveitn          reisaveitn          parsaveitn        noparsaverun
* singular value decomposition
         1
        82           1E-05
         1
* parameter groups
 median_gra              relative              1.0000000000E-02       0  switch                2.0000000000E+00       parabolic             1.0000000000E-05      5.0000000000E-01       smaller              
 ws_b                    relative              1.0000000000E-02       0  switch                2.0000000000E+00       parabolic             1.0000000000E-05      5.0000000000E-01       smaller              
 fall_time_              relative              1.0000000000E-02       0  switch                2.0000000000E+00       parabolic             1.0000000000E-05      5.0000000000E-01       smaller              
 plume_heig              relative              1.0000000000E-02       0  switch                2.0000000000E+00       parabolic             1.0000000000E-05      5.0000000000E-01       smaller              
 beta                    relative              1.0000000000E-02       0  switch                2.0000000000E+00       parabolic             1.0000000000E-05      5.0000000000E-01       smaller              
 diffusion_              relative              1.0000000000E-02       0  switch                2.0000000000E+00       parabolic             1.0000000000E-05      5.0000000000E-01       smaller              
 wd_b                    relative              1.0000000000E-02       0  switch                2.0000000000E+00       parabolic             1.0000000000E-05      5.0000000000E-01       smaller              
 wd_a                    relative              1.0000000000E-02       0  switch                2.0000000000E+00       parabolic             1.0000000000E-05      5.0000000000E-01       smaller              
 ws_a                    relative              1.0000000000E-02       0  switch                2.0000000000E+00       parabolic             1.0000000000E-05      5.0000000000E-01       smaller              
 std_grains              relative              1.0000000000E-02       0  switch                2.0000000000E+00       parabolic             1.0000000000E-05      5.0000000000E-01       smaller              
 alpha                   relative              1.0000000000E-02       0  switch                2.0000000000E+00       parabolic             1.0000000000E-05      5.0000000000E-01       smaller              
 eddy_const              relative              1.0000000000E-02       0  switch                2.0000000000E+00       parabolic             1.0000000000E-05      5.0000000000E-01       smaller              
 eruption_m              relative              1.0000000000E-02       0  switch                2.0000000000E+00       parabolic             1.0000000000E-05      5.0000000000E-01       smaller              
* parameter data
 pumdena                log                    factor                8.0000000000E+02      8.0000000000E+02      1.2000000000E+03       beta                  1.0000000000E+00      0.0000000000E+00      1          
 lithdena               log                    factor                2.4000000000E+03      2.4000000000E+03      2.8000000000E+03       beta                  1.0000000000E+00      0.0000000000E+00      1          
 pumdenb                log                    factor                1.1827559000E+03      8.0000000000E+02      1.2000000000E+03       beta                  1.0000000000E+00      0.0000000000E+00      1          
 lithdenb               log                    factor                2.4000000000E+03      2.4000000000E+03      2.8000000000E+03       beta                  1.0000000000E+00      0.0000000000E+00      1          
 median_ga              none                   relative              -3.0419854000E-01     -2.0000000000E+00     2.0000000000E+00       median_gra            1.0000000000E+00      0.0000000000E+00      1          
 median_gb              none                   relative              -2.3534270000E-01     -2.0000000000E+00     2.0000000000E+00       median_gra            1.0000000000E+00      0.0000000000E+00      1          
 ws_b_00                log                    factor                3.5484101000E+00      1.0000000000E-01      3.0000000000E+01       ws_b                  1.0000000000E+00      0.0000000000E+00      1          
 ws_b_01                log                    factor                3.4987889000E+00      1.0000000000E-01      3.0000000000E+01       ws_b                  1.0000000000E+00      0.0000000000E+00      1          
 ws_b_02                log                    factor                5.7732078000E+00      1.0000000000E-01      3.0000000000E+01       ws_b                  1.0000000000E+00      0.0000000000E+00      1          
 ws_b_03                log                    factor                7.4076453000E+00      1.0000000000E-01      3.0000000000E+01       ws_b                  1.0000000000E+00      0.0000000000E+00      1          
 ws_b_04                log                    factor                8.0709326000E+00      1.0000000000E-01      3.0000000000E+01       ws_b                  1.0000000000E+00      0.0000000000E+00      1          
 ws_b_05                log                    factor                1.5519480000E+01      2.0000000000E+00      3.0000000000E+01       ws_b                  1.0000000000E+00      0.0000000000E+00      1          
 ws_b_06                log                    factor                1.2274941000E+01      2.0000000000E+00      3.0000000000E+01       ws_b                  1.0000000000E+00      0.0000000000E+00      1          
 ws_b_07                log                    factor                1.0060086000E+01      2.0000000000E+00      3.0000000000E+01       ws_b                  1.0000000000E+00      0.0000000000E+00      1          
 ws_b_08                log                    factor                2.4778156000E+01      2.0000000000E+00      3.0000000000E+01       ws_b                  1.0000000000E+00      0.0000000000E+00      1          
 ws_b_09                log                    factor                1.4000000000E+01      5.0000000000E+00      3.0000000000E+01       ws_b                  1.0000000000E+00      0.0000000000E+00      1          
 ws_b_10                log                    factor                1.4000000000E+01      5.0000000000E+00      3.0000000000E+01       ws_b                  1.0000000000E+00      0.0000000000E+00      1          
 ws_b_11                log                    factor                1.4000000000E+01      5.0000000000E+00      3.0000000000E+01       ws_b                  1.0000000000E+00      0.0000000000E+00      1          
 ws_b_12                log                    factor                1.4000000000E+01      5.0000000000E+00      3.0000000000E+01       ws_b                  1.0000000000E+00      0.0000000000E+00      1          
 ws_b_13                log                    factor                2.0000000000E+01      5.0000000000E+00      4.0000000000E+01       ws_b                  1.0000000000E+00      0.0000000000E+00      1          
 ws_b_14                log                    factor                2.0000000000E+01      5.0000000000E+00      4.0000000000E+01       ws_b                  1.0000000000E+00      0.0000000000E+00      1          
 ws_b_15                log                    factor                2.0000000000E+01      5.0000000000E+00      4.0000000000E+01       ws_b                  1.0000000000E+00      0.0000000000E+00      1          
 fall_tima              log                    factor                2.8094978000E+03      1.0000000000E+03      7.0000000000E+03       fall_time_            1.0000000000E+00      0.0000000000E+00      1          
 fall_timb              log                    factor                2.9548407000E+03      1.0000000000E+03      7.0000000000E+03       fall_time_            1.0000000000E+00      0.0000000000E+00      1          
 plume_hea              log                    factor                1.0000000000E+04      3.0000000000E+03      1.0000000000E+04       plume_heig            1.0000000000E+00      0.0000000000E+00      1          
 plume_heb              log                    factor                7.6875172000E+03      3.0000000000E+03      1.0000000000E+04       plume_heig            1.0000000000E+00      0.0000000000E+00      1          
 betaa                  fixed                  factor                1.0000000000E+00      1.0000000000E-02      1.0000000000E+01       beta                  1.0000000000E+00      0.0000000000E+00      1          
 betab                  fixed                  factor                1.0000000000E+00      1.0000000000E-02      1.0000000000E+01       beta                  1.0000000000E+00      0.0000000000E+00      1          
 diffusioa              log                    factor                1.9869233000E+03      1.0000000000E-01      1.0000000000E+04       diffusion_            1.0000000000E+00      0.0000000000E+00      1          
 diffusiob              log                    factor                9.7360244000E+02      1.0000000000E-01      1.0000000000E+04       diffusion_            1.0000000000E+00      0.0000000000E+00      1          
 wd_b_00                log                    factor                3.2583971000E+02      1.7500000000E+02      4.5000000000E+02       wd_b                  1.0000000000E+00      0.0000000000E+00      1          
 wd_b_01                log                    factor                2.7344890000E+02      1.7500000000E+02      4.5000000000E+02       wd_b                  1.0000000000E+00      0.0000000000E+00      1          
 wd_b_02                log                    factor                2.8002411000E+02      1.7500000000E+02      4.5000000000E+02       wd_b                  1.0000000000E+00      0.0000000000E+00      1          
 wd_b_03                log                    factor                2.2971163000E+02      1.7500000000E+02      4.5000000000E+02       wd_b                  1.0000000000E+00      0.0000000000E+00      1          
 wd_b_04                log                    factor                2.5584992000E+02      1.7500000000E+02      4.5000000000E+02       wd_b                  1.0000000000E+00      0.0000000000E+00      1          
 wd_b_05                log                    factor                2.6891983000E+02      1.7500000000E+02      4.5000000000E+02       wd_b                  1.0000000000E+00      0.0000000000E+00      1          
 wd_b_06                log                    factor                2.5491094000E+02      1.7500000000E+02      4.5000000000E+02       wd_b                  1.0000000000E+00      0.0000000000E+00      1          
 wd_b_07                log                    factor                2.5485629000E+02      1.7500000000E+02      4.5000000000E+02       wd_b                  1.0000000000E+00      0.0000000000E+00      1          
 wd_b_08                log                    factor                1.7500000000E+02      1.7500000000E+02      4.5000000000E+02       wd_b                  1.0000000000E+00      0.0000000000E+00      1          
 wd_b_09                log                    factor                2.6200000000E+02      1.7500000000E+02      4.5000000000E+02       wd_b                  1.0000000000E+00      0.0000000000E+00      1          
 wd_b_10                log                    factor                2.6200000000E+02      1.7500000000E+02      4.5000000000E+02       wd_b                  1.0000000000E+00      0.0000000000E+00      1          
 wd_b_11                log                    factor                2.6200000000E+02      1.7500000000E+02      4.5000000000E+02       wd_b                  1.0000000000E+00      0.0000000000E+00      1          
 wd_b_12                log                    factor                2.6200000000E+02      1.7500000000E+02      4.5000000000E+02       wd_b                  1.0000000000E+00      0.0000000000E+00      1          
 wd_b_13                log                    factor                2.6200000000E+02      1.7500000000E+02      4.5000000000E+02       wd_b                  1.0000000000E+00      0.0000000000E+00      1          
 wd_b_14                log                    factor                2.6200000000E+02      1.7500000000E+02      4.5000000000E+02       wd_b                  1.0000000000E+00      0.0000000000E+00      1          
 wd_b_15                log                    factor                2.6200000000E+02      1.7500000000E+02      4.5000000000E+02       wd_b                  1.0000000000E+00      0.0000000000E+00      1          
 wd_a_00                log                    factor                2.8894153000E+02      1.7500000000E+02      4.5000000000E+02       wd_a                  1.0000000000E+00      0.0000000000E+00      1          
 wd_a_01                log                    factor                2.5228660000E+02      1.7500000000E+02      4.5000000000E+02       wd_a                  1.0000000000E+00      0.0000000000E+00      1          
 wd_a_02                log                    factor                2.3669513000E+02      1.7500000000E+02      4.5000000000E+02       wd_a                  1.0000000000E+00      0.0000000000E+00      1          
 wd_a_03                log                    factor                3.0253509000E+02      1.7500000000E+02      4.5000000000E+02       wd_a                  1.0000000000E+00      0.0000000000E+00      1          
 wd_a_04                log                    factor                2.2753307000E+02      1.7500000000E+02      4.5000000000E+02       wd_a                  1.0000000000E+00      0.0000000000E+00      1          
 wd_a_05                log                    factor                4.4203975000E+02      1.7500000000E+02      4.5000000000E+02       wd_a                  1.0000000000E+00      0.0000000000E+00      1          
 wd_a_06                log                    factor                1.9192703000E+02      1.7500000000E+02      4.5000000000E+02       wd_a                  1.0000000000E+00      0.0000000000E+00      1          
 wd_a_07                log                    factor                4.4680313000E+02      1.7500000000E+02      4.5000000000E+02       wd_a                  1.0000000000E+00      0.0000000000E+00      1          
 wd_a_08                log                    factor                3.1587554000E+02      1.7500000000E+02      4.5000000000E+02       wd_a                  1.0000000000E+00      0.0000000000E+00      1          
 wd_a_09                log                    factor                4.3419678000E+02      1.7500000000E+02      4.5000000000E+02       wd_a                  1.0000000000E+00      0.0000000000E+00      1          
 wd_a_10                log                    factor                1.7500000000E+02      1.7500000000E+02      4.5000000000E+02       wd_a                  1.0000000000E+00      0.0000000000E+00      1          
 wd_a_11                log                    factor                2.5500000000E+02      1.7500000000E+02      4.5000000000E+02       wd_a                  1.0000000000E+00      0.0000000000E+00      1          
 wd_a_12                log                    factor                2.5500000000E+02      1.7500000000E+02      4.5000000000E+02       wd_a                  1.0000000000E+00      0.0000000000E+00      1          
 wd_a_13                log                    factor                2.5500000000E+02      1.7500000000E+02      4.5000000000E+02       wd_a                  1.0000000000E+00      0.0000000000E+00      1          
 wd_a_14                log                    factor                2.5500000000E+02      1.7500000000E+02      4.5000000000E+02       wd_a                  1.0000000000E+00      0.0000000000E+00      1          
 wd_a_15                log                    factor                2.5500000000E+02      1.7500000000E+02      4.5000000000E+02       wd_a                  1.0000000000E+00      0.0000000000E+00      1          
 ws_a_00                log                    factor                5.9634659000E-01      1.0000000000E-01      3.0000000000E+01       ws_a                  1.0000000000E+00      0.0000000000E+00      1          
 ws_a_01                log                    factor                7.4605004000E+00      1.0000000000E-01      3.0000000000E+01       ws_a                  1.0000000000E+00      0.0000000000E+00      1          
 ws_a_02                log                    factor                1.5430243000E+01      1.0000000000E-01      3.0000000000E+01       ws_a                  1.0000000000E+00      0.0000000000E+00      1          
 ws_a_03                log                    factor                8.8433737000E+00      1.0000000000E-01      3.0000000000E+01       ws_a                  1.0000000000E+00      0.0000000000E+00      1          
 ws_a_04                log                    factor                1.1916470000E+01      1.0000000000E-01      3.0000000000E+01       ws_a                  1.0000000000E+00      0.0000000000E+00      1          
 ws_a_05                log                    factor                9.2973432000E+00      2.0000000000E+00      3.0000000000E+01       ws_a                  1.0000000000E+00      0.0000000000E+00      1          
 ws_a_06                log                    factor                3.0000000000E+01      2.0000000000E+00      3.0000000000E+01       ws_a                  1.0000000000E+00      0.0000000000E+00      1          
 ws_a_07                log                    factor                3.0000000000E+01      2.0000000000E+00      3.0000000000E+01       ws_a                  1.0000000000E+00      0.0000000000E+00      1          
 ws_a_08                log                    factor                3.0000000000E+01      2.0000000000E+00      3.0000000000E+01       ws_a                  1.0000000000E+00      0.0000000000E+00      1          
 ws_a_09                log                    factor                3.0000000000E+01      5.0000000000E+00      3.0000000000E+01       ws_a                  1.0000000000E+00      0.0000000000E+00      1          
 ws_a_10                log                    factor                3.0000000000E+01      5.0000000000E+00      3.0000000000E+01       ws_a                  1.0000000000E+00      0.0000000000E+00      1          
 ws_a_11                log                    factor                1.4000000000E+01      5.0000000000E+00      3.0000000000E+01       ws_a                  1.0000000000E+00      0.0000000000E+00      1          
 ws_a_12                log                    factor                1.4000000000E+01      5.0000000000E+00      3.0000000000E+01       ws_a                  1.0000000000E+00      0.0000000000E+00      1          
 ws_a_13                log                    factor                2.0000000000E+01      5.0000000000E+00      4.0000000000E+01       ws_a                  1.0000000000E+00      0.0000000000E+00      1          
 ws_a_14                log                    factor                2.0000000000E+01      5.0000000000E+00      4.0000000000E+01       ws_a                  1.0000000000E+00      0.0000000000E+00      1          
 ws_a_15                log                    factor                2.0000000000E+01      5.0000000000E+00      4.0000000000E+01       ws_a                  1.0000000000E+00      0.0000000000E+00      1          
 std_graia              log                    factor                2.0624069000E+00      5.0000000000E-03      4.0000000000E+00       std_grains            1.0000000000E+00      0.0000000000E+00      1          
 std_graib              log                    factor                2.1100924000E+00      5.0000000000E-03      4.0000000000E+00       std_grains            1.0000000000E+00      0.0000000000E+00      1          
 alphaa                 log                    factor                2.7569980000E-01      1.0000000000E-04      1.0000000000E+01       alpha                 1.0000000000E+00      0.0000000000E+00      1          
 alphab                 log                    factor                7.6666454000E-01      1.0000000000E-04      1.0000000000E+01       alpha                 1.0000000000E+00      0.0000000000E+00      1          
 eddy_cona              log                    factor                4.9827736000E-03      1.0000000000E-03      9.0000000000E-03       eddy_const            1.0000000000E+00      0.0000000000E+00      1          
 eddy_conb              log                    factor                4.9978081000E-03      1.0000000000E-03      9.0000000000E-03       eddy_const            1.0000000000E+00      0.0000000000E+00      1          
 eruptiona              log                    factor                4.6381749000E+10      5.0000000000E+09      1.0000000000E+11       eruption_m            1.0000000000E+00      0.0000000000E+00      1          
 eruptionb              log                    factor                9.4923618000E+09      1.0000000000E+09      7.5000000000E+10       eruption_m            1.0000000000E+00      0.0000000000E+00      1          
* observation groups
gs+3.0               
gs-0.5               
gs-4.0               
gs+0.0               
gs-1.5               
gs+0.5               
gs-1.0               
gs+1.5               
gs+1.0               
gs>3.0               
gs+2.0               
gs-2.5               
gs-3.5               
gs+2.5               
gs-3.0               
imas                 
gs-2.0               
regul                
* observation data
 32a_gs+0.0            0.0000000000E+00      2.5000000000E-01       gs+0.0               
 32b_gs+0.0            0.0000000000E+00      2.5000000000E-01       gs+0.0               
 33a_gs+0.0            0.0000000000E+00      2.5000000000E-01       gs+0.0               
 33b_gs+0.0            0.0000000000E+00      2.5000000000E-01       gs+0.0               
 44a_gs+0.0            0.0000000000E+00      2.5000000000E-01       gs+0.0               
 44b_gs+0.0            0.0000000000E+00      2.5000000000E-01       gs+0.0               
 67_gs+0.0             3.8584150000E-01      2.5000000000E-01       gs+0.0               
 68_gs+0.0             1.0783350000E+00      2.5000000000E-01       gs+0.0               
 66_gs+0.0             1.8503040000E+00      2.5000000000E-01       gs+0.0               
 69_gs+0.0             2.4759490000E+00      2.5000000000E-01       gs+0.0               
 09_gs+0.0             3.0812930000E+00      2.5000000000E-01       gs+0.0               
 60a_gs+0.0            4.1052800000E+00      2.5000000000E-01       gs+0.0               
 62a_gs+0.0            5.0861960000E+00      2.5000000000E-01       gs+0.0               
 39_gs+0.0             5.5538040000E+00      2.5000000000E-01       gs+0.0               
 29a_gs+0.0            5.9869580000E+00      2.5000000000E-01       gs+0.0               
 02b_gs+0.0            6.4224900000E+00      2.5000000000E-01       gs+0.0               
 28a_gs+0.0            7.2342510000E+00      2.5000000000E-01       gs+0.0               
 27a_gs+0.0            9.5525570000E+00      2.5000000000E-01       gs+0.0               
 06b_gs+0.0            1.0166350000E+01      2.5000000000E-01       gs+0.0               
 17a_gs+0.0            1.0664680000E+01      2.5000000000E-01       gs+0.0               
 50_gs+0.0             1.2535370000E+01      2.5000000000E-01       gs+0.0               
 43b_gs+0.0            1.2664570000E+01      2.5000000000E-01       gs+0.0               
 31a_gs+0.0            1.2798810000E+01      2.5000000000E-01       gs+0.0               
 72b_gs+0.0            1.3607860000E+01      2.5000000000E-01       gs+0.0               
 13_gs+0.0             1.5500850000E+01      2.5000000000E-01       gs+0.0               
 05b_gs+0.0            1.6244040000E+01      2.4624420000E-01       gs+0.0               
 34b_gs+0.0            1.6489990000E+01      2.4257140000E-01       gs+0.0               
 15a_gs+0.0            1.6749700000E+01      2.3881020000E-01       gs+0.0               
 08_gs+0.0             1.6782080000E+01      2.3834950000E-01       gs+0.0               
 70_gs+0.0             1.7553410000E+01      2.2787600000E-01       gs+0.0               
 34a_gs+0.0            1.7706720000E+01      2.2590290000E-01       gs+0.0               
 51_gs+0.0             1.7783310000E+01      2.2493000000E-01       gs+0.0               
 56_gs+0.0             1.7836050000E+01      2.2426490000E-01       gs+0.0               
 21_gs+0.0             1.7861810000E+01      2.2394150000E-01       gs+0.0               
 47_gs+0.0             1.8679020000E+01      2.1414400000E-01       gs+0.0               
 59_gs+0.0             1.9569230000E+01      2.0440250000E-01       gs+0.0               
 37b_gs+0.0            1.9657720000E+01      2.0348240000E-01       gs+0.0               
 02a_gs+0.0            2.1302530000E+01      1.8777110000E-01       gs+0.0               
 10_gs+0.0             2.1676610000E+01      1.8453070000E-01       gs+0.0               
 04a_gs+0.0            2.1761740000E+01      1.8380880000E-01       gs+0.0               
 49_gs+0.0             2.2150050000E+01      1.8058650000E-01       gs+0.0               
 74a_gs+0.0            2.3110210000E+01      1.7308370000E-01       gs+0.0               
 52_gs+0.0             2.3110910000E+01      1.7307840000E-01       gs+0.0               
 01a_gs+0.0            2.3638660000E+01      1.6921430000E-01       gs+0.0               
 17b_gs+0.0            2.4697410000E+01      1.6196030000E-01       gs+0.0               
 36a_gs+0.0            2.6317600000E+01      1.5198950000E-01       gs+0.0               
 20_gs+0.0             2.6379600000E+01      1.5163230000E-01       gs+0.0               
 79_gs+0.0             2.6406100000E+01      1.5148020000E-01       gs+0.0               
 62b_gs+0.0            2.6599020000E+01      1.5038150000E-01       gs+0.0               
 48_gs+0.0             2.7154240000E+01      1.4730660000E-01       gs+0.0               
 65_gs+0.0             2.7941250000E+01      1.4315750000E-01       gs+0.0               
 11_gs+0.0             2.8855970000E+01      1.3861950000E-01       gs+0.0               
 36b_gs+0.0            2.9549720000E+01      1.3536510000E-01       gs+0.0               
 72a_gs+0.0            2.9595560000E+01      1.3515540000E-01       gs+0.0               
 01b_gs+0.0            3.1496100000E+01      1.2699990000E-01       gs+0.0               
 18_gs+0.0             3.2516680000E+01      1.2301380000E-01       gs+0.0               
 22_gs+0.0             3.2926420000E+01      1.2148300000E-01       gs+0.0               
 12_gs+0.0             3.3899010000E+01      1.1799750000E-01       gs+0.0               
 04b_gs+0.0            3.5220530000E+01      1.1357010000E-01       gs+0.0               
 23b_gs+0.0            3.5458840000E+01      1.1280680000E-01       gs+0.0               
 57_gs+0.0             3.7017740000E+01      1.0805630000E-01       gs+0.0               
 03b_gs+0.0            3.9839390000E+01      1.0040310000E-01       gs+0.0               
 06a_gs+0.0            3.9916430000E+01      1.0020940000E-01       gs+0.0               
 29b_gs+0.0            4.0036840000E+01      9.9907980000E-02       gs+0.0               
 05a_gs+0.0            4.0286880000E+01      9.9287910000E-02       gs+0.0               
 15b_gs+0.0            4.0414690000E+01      9.8973910000E-02       gs+0.0               
 42b_gs+0.0            4.0555530000E+01      9.8630200000E-02       gs+0.0               
 74b_gs+0.0            4.2162600000E+01      9.4870810000E-02       gs+0.0               
 53_gs+0.0             4.3258680000E+01      9.2466990000E-02       gs+0.0               
 30_gs+0.0             4.3477460000E+01      9.2001690000E-02       gs+0.0               
 16b_gs+0.0            4.4289080000E+01      9.0315720000E-02       gs+0.0               
 28b_gs+0.0            4.4368370000E+01      9.0154310000E-02       gs+0.0               
 14_gs+0.0             4.4995020000E+01      8.8898730000E-02       gs+0.0               
 60b_gs+0.0            4.7044750000E+01      8.5025430000E-02       gs+0.0               
 45_gs+0.0             5.1221470000E+01      7.8092250000E-02       gs+0.0               
 54_gs+0.0             5.1539170000E+01      7.7610870000E-02       gs+0.0               
 07_gs+0.0             5.2078980000E+01      7.6806420000E-02       gs+0.0               
 27b_gs+0.0            5.4458800000E+01      7.3450020000E-02       gs+0.0               
 46_gs+0.0             5.4537270000E+01      7.3344340000E-02       gs+0.0               
 37a_gs+0.0            5.8471470000E+01      6.8409430000E-02       gs+0.0               
 78_gs+0.0             6.1191940000E+01      6.5368090000E-02       gs+0.0               